RedeDSS/Rede_CAI_teste_sem_trafos_Curr_Seq.Txt

SYMMETRICAL COMPONENT CURRENTS BY CIRCUIT ELEMENT (first 3 phases)

Element                          Term      I1         I2         %I2/I1    I0         %I0/I1   %Normal %Emergency

"VSOURCE.SOURCE" ...............   1      89.639       1.1951     1.33  5.7832E-013     0.00      0.00     0.00
   -                               2      89.639       1.1951     1.33  5.7832E-013     0.00      0.00     0.00
"LINE.12465653_ID5719" .........   1      19.924       0.3424     1.72     0.37373     1.88      4.13     3.44
   -                               2      19.924       0.3424     1.72     0.37373     1.88      0.00     0.00
"LINE.12465646_ID4662" .........   1      73.224       1.0768     1.47      1.1062     1.51     14.93    12.44
   -                               2      73.224       1.0768     1.47      1.1062     1.51      0.00     0.00
"LINE.361598283_ID6421" ........   1  2.1231E-009   1.4466E-009    68.14  1.7535E-007  8259.07      0.00     0.00
   -                               2  2.1441E-009   1.5082E-009    70.34  1.929E-007  8996.74      0.00     0.00
"LINE.363434473_ID6207" ........   1      37.453      0.77033     2.06     0.77814     2.08      8.66     6.49
   -                               2      37.453      0.77033     2.06     0.77814     2.08      0.00     0.00
"LINE.363434188_ID5983" ........   1      30.931       0.7912     2.56     0.78943     2.55      6.50     5.42
   -                               2      30.931       0.7912     2.56     0.78943     2.55      0.00     0.00
"LINE.361598269_ID5059" ........   1      81.131       2.4228     2.99      2.4323     3.00     17.00    14.17
   -                               2      81.131       2.4228     2.99      2.4323     3.00      0.00     0.00
"LINE.361598276_ID4187" ........   1      113.24        2.571     2.27      2.5783     2.28     23.35    19.46
   -                               2      113.24        2.571     2.27      2.5783     2.28      0.00     0.00
"LINE.363434459_ID3365" ........   1      135.56      0.59435     0.44     0.55939     0.41     27.30    22.75
   -                               2      135.56      0.59435     0.44     0.55939     0.41      0.00     0.00
"LINE.12465652_ID6367" .........   1  8.2169E-009   1.0106E-008   122.99  5.6746E-008   690.60      0.00     0.00
   -                               2  8.2548E-009   1.0102E-008   122.38  5.8548E-008   709.26      0.00     0.00
"LINE.12465654_ID5411" .........   1      76.441      0.64532     0.84      0.6327     0.83     15.49    12.91
   -                               2      76.441      0.64532     0.84      0.6327     0.83      0.00     0.00
"LINE.12465633_ID5720" .........   1      19.924       0.3424     1.72     0.37373     1.88      4.13     3.44
   -                               2      19.924       0.3424     1.72     0.37373     1.88      0.00     0.00
"LINE.12465631_ID4663" .........   1      73.224       1.0768     1.47      1.1062     1.51     14.93    12.44
   -                               2      73.224       1.0768     1.47      1.1062     1.51      0.00     0.00
"LINE.12465658_ID6208" .........   1      37.453      0.77033     2.06     0.77814     2.08      7.79     6.49
   -                               2      37.453      0.77033     2.06     0.77814     2.08      0.00     0.00
"LINE.12465648_ID5984" .........   1      30.931       0.7912     2.56     0.78943     2.55      6.50     5.42
   -                               2      30.931       0.7912     2.56     0.78943     2.55      0.00     0.00
"LINE.12465656_ID3366" .........   1      135.56      0.59435     0.44     0.55939     0.41     27.30    22.75
   -                               2      135.56      0.59435     0.44     0.55939     0.41      0.00     0.00
"LINE.12465627_ID6368" .........   1  8.3692E-009   1.0199E-008   121.86  5.6808E-008   678.77      0.00     0.00
   -                               2  8.3342E-009   1.0178E-008   122.12  5.4889E-008   658.60      0.00     0.00
"LINE.12465632_ID5412" .........   1      76.441      0.64532     0.84      0.6327     0.83     15.49    12.91
   -                               2      76.441      0.64532     0.84     0.63269     0.83      0.00     0.00
"LINE.12465599_ID5721" .........   1      19.924       0.3424     1.72     0.37373     1.88      4.13     3.44
   -                               2      19.924       0.3424     1.72     0.37373     1.88      0.00     0.00
"LINE.12465600_ID4664" .........   1      73.224       1.0768     1.47      1.1062     1.51     14.93    12.44
   -                               2      73.224       1.0768     1.47      1.1062     1.51      0.00     0.00
"LINE.363435145_ID6422" ........   1  2.0315E-009   1.4854E-009    73.12  1.2639E-007  6221.41      0.00     0.00
   -                               2  2.081E-009   1.4568E-009    70.00  1.754E-007  8428.58      0.00     0.00
"LINE.12465658_ID6209" .........   1      37.453      0.77033     2.06     0.77814     2.08      7.79     6.49
   -                               2      37.453      0.77033     2.06     0.77814     2.08      0.00     0.00
"LINE.12465628_ID5985" .........   1      30.931       0.7912     2.56     0.78943     2.55      6.50     5.42
   -                               2      30.931       0.7912     2.56     0.78943     2.55      0.00     0.00
"LINE.363435121_ID5060" ........   1      81.131       2.4228     2.99      2.4323     3.00     17.00    14.17
   -                               2      81.131       2.4228     2.99      2.4323     3.00      0.00     0.00
"LINE.363435071_ID4188" ........   1      113.24        2.571     2.27      2.5783     2.28     23.35    19.46
   -                               2      113.24        2.571     2.27      2.5783     2.28      0.00     0.00
"LINE.12465630_ID3367" .........   1      135.56      0.59435     0.44     0.55939     0.41     27.30    22.75
   -                               2      135.56      0.59435     0.44     0.55939     0.41      0.00     0.00
"LINE.12465594_ID6369" .........   1  8.3637E-009   1.0312E-008   123.30  5.4932E-008   656.78      0.00     0.00
   -                               2  8.3712E-009   1.0264E-008   122.61  5.3149E-008   634.90      0.00     0.00
"LINE.12465603_ID5413" .........   1      76.441      0.64532     0.84     0.63269     0.83     15.49    12.91
   -                               2      76.441      0.64532     0.84     0.63269     0.83      0.00     0.00
"LINE.12465599_ID5722" .........   1      19.924       0.3424     1.72     0.37373     1.88      4.13     3.44
   -                               2      19.924       0.3424     1.72     0.37373     1.88      0.00     0.00
"LINE.12465600_ID4665" .........   1      73.224       1.0768     1.47      1.1062     1.51     14.93    12.44
   -                               2      73.224       1.0768     1.47      1.1062     1.51      0.00     0.00
"LINE.12465629_ID6210" .........   1      37.453      0.77033     2.06     0.77814     2.08      7.79     6.49
   -                               2      37.453      0.77033     2.06     0.77814     2.08      0.00     0.00
"LINE.12465596_ID5986" .........   1      30.931       0.7912     2.56     0.78943     2.55      6.50     5.42
   -                               2      30.931       0.7912     2.56     0.78943     2.55      0.00     0.00
"LINE.12465602_ID3368" .........   1      135.56      0.59435     0.44     0.55939     0.41     27.30    22.75
   -                               2      135.56      0.59435     0.44     0.55939     0.41      0.00     0.00
"LINE.12465586_ID6370" .........   1  8.2749E-009   1.0194E-008   123.19  5.4556E-008   659.30      0.00     0.00
   -                               2  8.3432E-009   1.0109E-008   121.16  5.3842E-008   645.34      0.00     0.00
"LINE.12465603_ID5414" .........   1      76.441      0.64532     0.84     0.63269     0.83     15.49    12.91
   -                               2      76.441      0.64532     0.84     0.63269     0.83      0.00     0.00
"LINE.12465599_ID5723" .........   1      19.924       0.3424     1.72     0.37373     1.88      4.13     3.44
   -                               2      19.924       0.3424     1.72     0.37373     1.88      0.00     0.00
"LINE.12465589_ID4666" .........   1      73.224       1.0768     1.47      1.1062     1.51     14.93    12.44
   -                               2      73.224       1.0768     1.47      1.1062     1.51      0.00     0.00
"LINE.363435311_ID6423" ........   1  2.0819E-009   1.5204E-009    73.03  7.7363E-008  3716.03      0.00     0.00
   -                               2  2.1716E-009   1.4993E-009    69.04  1.2639E-007  5820.16      0.00     0.00
"LINE.12465598_ID6211" .........   1      37.453      0.77033     2.06     0.77814     2.08      7.79     6.49
   -                               2      37.453      0.77033     2.06     0.77814     2.08      0.00     0.00
"LINE.12465596_ID5987" .........   1      30.931       0.7912     2.56     0.78943     2.55      6.50     5.42
   -                               2      30.931       0.7912     2.56     0.78943     2.55      0.00     0.00
"LINE.363435153_ID5061" ........   1      81.131       2.4228     2.99      2.4323     3.00     17.00    14.17
   -                               2      81.131       2.4228     2.99      2.4323     3.00      0.00     0.00
"LINE.363435303_ID4189" ........   1      113.24        2.571     2.27      2.5783     2.28     23.35    19.46
   -                               2      113.24        2.571     2.27      2.5783     2.28      0.00     0.00
"LINE.12465602_ID3369" .........   1      135.56      0.59435     0.44     0.55939     0.41     27.30    22.75
   -                               2      135.56      0.59435     0.44     0.55939     0.41      0.00     0.00
"LINE.12465588_ID5415" .........   1      76.441      0.64532     0.84     0.63269     0.83     15.49    12.91
   -                               2      76.441      0.64532     0.84     0.63269     0.83      0.00     0.00
"LINE.12465584_ID5724" .........   1      19.924       0.3424     1.72     0.37373     1.88      4.13     3.44
   -                               2      19.924       0.3424     1.72     0.37373     1.88      0.00     0.00
"LINE.12465589_ID4667" .........   1      73.224       1.0768     1.47      1.1062     1.51     14.93    12.44
   -                               2      73.224       1.0768     1.47      1.1062     1.51      0.00     0.00
"LINE.12465598_ID6212" .........   1      37.453      0.77033     2.06     0.77814     2.08      7.79     6.49
   -                               2      37.453      0.77033     2.06     0.77814     2.08      0.00     0.00
"LINE.12465587_ID5988" .........   1      30.931       0.7912     2.56     0.78943     2.55      6.50     5.42
   -                               2      30.931       0.7912     2.56     0.78943     2.55      0.00     0.00
"LINE.12465590_ID3370" .........   1      135.56      0.59435     0.44     0.55939     0.41     27.30    22.75
   -                               2      135.56      0.59435     0.44     0.55939     0.41      0.00     0.00
"LINE.5675047_ID6371" ..........   1  7.2745E-009   1.1855E-008   162.96  5.7408E-008   789.17      0.00     0.00
   -                               2  8.016E-009   1.0049E-008   125.37  5.818E-008   725.80      0.00     0.00
"LINE.12465638_ID5416" .........   1      76.441      0.64532     0.84     0.63269     0.83     15.49    12.91
   -                               2      76.441      0.64532     0.84     0.63269     0.83      0.00     0.00
"LINE.12465589_ID4668" .........   1      73.224       1.0768     1.47      1.1062     1.51     14.93    12.44
   -                               2      73.224       1.0768     1.47      1.1062     1.51      0.00     0.00
"LINE.363438455_ID6424" ........   1  2.0316E-009   1.5096E-009    74.30  2.0338E-009   100.11      0.00     0.00
   -                               2  2.0217E-009   1.5021E-009    74.30  7.7332E-008  3825.10      0.00     0.00
"LINE.12465597_ID6213" .........   1      37.453      0.77033     2.06     0.77814     2.08      7.79     6.49
   -                               2      37.453      0.77033     2.06     0.77814     2.08      0.00     0.00
"LINE.12465587_ID5989" .........   1      30.931       0.7912     2.56     0.78943     2.55      6.50     5.42
   -                               2      30.931       0.7912     2.56     0.78943     2.55      0.00     0.00
"LINE.363435319_ID5062" ........   1      81.131       2.4228     2.99      2.4323     3.00     17.00    14.17
   -                               2      81.131       2.4228     2.99      2.4323     3.00      0.00     0.00
"LINE.363438448_ID4190" ........   1      113.24        2.571     2.27      2.5783     2.28     23.35    19.46
   -                               2      113.24        2.571     2.27      2.5783     2.28      0.00     0.00
"LINE.12465590_ID3371" .........   1      135.56      0.59435     0.44     0.55939     0.41     27.30    22.75
   -                               2      135.56      0.59435     0.44     0.55939     0.41      0.00     0.00
"LINE.5675058_ID6372" ..........   1  1.0334E-008   9.4809E-009    91.74  5.3344E-008   516.18      0.00     0.00
   -                               2  1.0201E-008   9.3715E-009    91.87  5.5092E-008   540.08      0.00     0.00
"LINE.5675059_ID6373" ..........   1  9.4904E-011   9.4985E-011   100.08  3.2438E-011    34.18      0.00     0.00
   -                               2  2.2615E-010   1.6812E-011     7.43  3.4445E-010   152.31      0.00     0.00
"LINE.5674994_ID5725" ..........   1      19.924       0.3424     1.72     0.37373     1.88      5.67     3.44
   -                               2      19.924       0.3424     1.72     0.37373     1.88      0.00     0.00
"LINE.12465589_ID4669" .........   1      73.224       1.0768     1.47      1.1062     1.51     14.93    12.44
   -                               2      73.224       1.0768     1.47      1.1062     1.51      0.00     0.00
"LINE.12465597_ID6214" .........   1      37.453      0.77033     2.06     0.77814     2.08      7.79     6.49
   -                               2      37.453      0.77033     2.06     0.77814     2.08      0.00     0.00
"LINE.12465587_ID5990" .........   1      30.931       0.7912     2.56     0.78943     2.55      6.50     5.42
   -                               2      30.931       0.7912     2.56     0.78943     2.55      0.00     0.00
"LINE.12465590_ID3372" .........   1      135.56      0.59435     0.44     0.55939     0.41     27.30    22.75
   -                               2      135.56      0.59435     0.44     0.55939     0.41      0.00     0.00
"LINE.5675058_ID6374" ..........   1  1.0555E-008   9.423E-009    89.28  5.1743E-008   490.24      0.00     0.00
   -                               2  1.0505E-008   9.1915E-009    87.50  5.3181E-008   506.24      0.00     0.00
"LINE.5675532_ID5417" ..........   1      76.441      0.64532     0.84     0.63269     0.83     21.27    12.91
   -                               2      76.441      0.64532     0.84     0.63269     0.83      0.00     0.00
"LINE.5675005_ID5726" ..........   1      19.924       0.3424     1.72     0.37373     1.88      4.82     3.44
   -                               2      19.924       0.3424     1.72     0.37373     1.88      0.00     0.00
"LINE.5675006_ID5727" ..........   1  3.1433E-010   3.368E-010   107.15  4.3596E-010   138.69      0.00     0.00
   -                               2  4.6474E-010   2.3817E-010    51.25  5.2007E-010   111.90      0.00     0.00
"LINE.12460924_ID4670" .........   1      73.224       1.0768     1.47      1.1062     1.51     14.93    12.44
   -                               2      73.224       1.0768     1.47      1.1062     1.51      0.00     0.00
"LINE.363438468_ID6425" ........   1  2.4582E-009   1.4434E-009    58.72  2.8052E-009   114.12      0.00     0.00
   -                               2  2.4389E-009   1.3538E-009    55.51  7.821E-010    32.07      0.00     0.00
"LINE.12465597_ID6215" .........   1      37.453      0.77033     2.06     0.77814     2.08      7.79     6.49
   -                               2      37.453      0.77033     2.06     0.77814     2.08      0.00     0.00
"LINE.12461017_ID5991" .........   1      30.931       0.7912     2.56     0.78943     2.55      6.50     5.42
   -                               2      30.931       0.7912     2.56     0.78943     2.55      0.00     0.00
"LINE.363439152_ID5063" ........   1      81.131       2.4228     2.99      2.4323     3.00     17.00    14.17
   -                               2      81.131       2.4228     2.99      2.4323     3.00      0.00     0.00
"LINE.363439161_ID4191" ........   1      113.24        2.571     2.27      2.5783     2.28     23.35    19.46
   -                               2      113.24        2.571     2.27      2.5783     2.28      0.00     0.00
"LINE.12461016_ID3373" .........   1      135.56      0.59435     0.44     0.55939     0.41     27.30    22.75
   -                               2      135.56      0.59435     0.44     0.55939     0.41      0.00     0.00
"LINE.5675058_ID6375" ..........   1  1.0135E-008   9.2907E-009    91.67  5.1817E-008   511.26      0.00     0.00
   -                               2  1.0278E-008   9.3599E-009    91.06  5.0581E-008   492.11      0.00     0.00
"LINE.5675530_ID5418" ..........   1  1.0255E-009   1.6944E-009   165.22  3.3968E-009   331.22      0.00     0.00
   -                               2  1.0161E-009   1.6691E-009   164.26  4.3859E-009   431.65      0.00     0.00
"LINE.5675531_ID5419" ..........   1      76.441      0.64532     0.84     0.63269     0.83     18.09    12.91
   -                               2      76.441      0.64532     0.84     0.63269     0.83      0.00     0.00
"LINE.5675005_ID5728" ..........   1      19.538      0.34239     1.75     0.37374     1.91      4.73     3.37
   -                               2      19.538      0.34239     1.75     0.37374     1.91      0.00     0.00
"LINE.363438468_ID6426" ........   1  7.3248E-010   1.2595E-009   171.95  5.3278E-010    72.74      0.00     0.00
   -                               2  6.1525E-010   1.5196E-009   246.99  2.1867E-009   355.42      0.00     0.00
"LINE.12461015_ID6216" .........   1      37.453      0.77033     2.06     0.77814     2.08      7.79     6.49
   -                               2      37.453      0.77033     2.06     0.77814     2.08      0.00     0.00
"LINE.12461018_ID5992" .........   1      30.931       0.7912     2.56     0.78943     2.55      6.50     5.42
   -                               2      30.931       0.7912     2.56     0.78943     2.55      0.00     0.00
"LINE.363443284_ID5064" ........   1      81.131       2.4228     2.99      2.4323     3.00     17.00    14.17
   -                               2      81.131       2.4228     2.99      2.4323     3.00      0.00     0.00
"LINE.363443292_ID4192" ........   1      113.24        2.571     2.27      2.5783     2.28     23.35    19.46
   -                               2      113.24        2.571     2.27      2.5783     2.28      0.00     0.00
"LINE.12461020_ID3374" .........   1      135.56      0.59435     0.44     0.55939     0.41     27.30    22.75
   -                               2      135.56      0.59435     0.44     0.55939     0.41      0.00     0.00
"LINE.5675027_ID6376" ..........   1  1.0485E-008   9.0234E-009    86.06  4.918E-008   469.07      0.00     0.00
   -                               2  1.0714E-008   9.5319E-009    88.97  5.0124E-008   467.82      0.00     0.00
"LINE.5675530_ID5420" ..........   1  3.4811E-009   2.4716E-009    71.00  2.5268E-009    72.59      0.00     0.00
   -                               2  3.4341E-009   1.8789E-009    54.71  6.5854E-010    19.18      0.00     0.00
"LINE.5675828_ID5421" ..........   1  1.5334E-010   1.446E-010    94.30  9.256E-011    60.36      0.00     0.00
   -                               2  3.3018E-010   2.0934E-010    63.40  4.1374E-010   125.31      0.00     0.00
"LINE.5675829_ID5422" ..........   1      76.441      0.64532     0.84     0.63269     0.83     18.09    12.91
   -                               2      76.441      0.64532     0.84     0.63269     0.83      0.00     0.00
"LINE.5675005_ID5729" ..........   1      19.538      0.34239     1.75     0.37374     1.91      4.73     3.37
   -                               2      19.538      0.34239     1.75     0.37374     1.91      0.00     0.00
"LINE.5667238_ID4671" ..........   1      73.224       1.0768     1.47      1.1062     1.51     23.11    12.44
   -                               2      73.224       1.0768     1.47      1.1062     1.51      0.00     0.00
"LINE.12461019_ID6217" .........   1      37.453      0.77033     2.06     0.77814     2.08      7.79     6.49
   -                               2      37.453      0.77033     2.06     0.77814     2.08      0.00     0.00
"LINE.12460927_ID5993" .........   1      30.931       0.7912     2.56     0.78943     2.55      6.50     5.42
   -                               2      30.931       0.7912     2.56     0.78943     2.55      0.00     0.00
"LINE.12460929_ID3375" .........   1      135.56      0.59435     0.44     0.55939     0.41     27.30    22.75
   -                               2      135.56      0.59435     0.44     0.55939     0.41      0.00     0.00
"LINE.5675026_ID6377" ..........   1  9.1664E-009   4.2924E-009    46.83  1.954E-009    21.32      0.00     0.00
   -                               2  9.2341E-009   4.1624E-009    45.08  3.1891E-009    34.54      0.00     0.00
"LINE.363825500_ID6378" ........   1  1.2209E-009   8.2952E-009   679.41  4.5536E-008  3729.52      0.00     0.00
   -                               2  1.5515E-009   7.8676E-009   507.09  4.6452E-008  2993.94      0.00     0.00
"LINE.5675829_ID5423" ..........   1      76.441      0.64532     0.84     0.63269     0.83     18.09    12.91
   -                               2      76.441      0.64532     0.84     0.63269     0.83      0.00     0.00
"LINE.5675005_ID5730" ..........   1      19.538      0.34239     1.75     0.37374     1.91      4.73     3.37
   -                               2      19.538      0.34239     1.75     0.37374     1.91      0.00     0.00
"LINE.5667225_ID4672" ..........   1      73.224       1.0768     1.47      1.1062     1.51     23.11    12.44
   -                               2      73.224       1.0768     1.47      1.1062     1.51      0.00     0.00
"LINE.5667226_ID4673" ..........   1  2.5049E-010   2.1303E-010    85.05  3.9131E-010   156.22      0.00     0.00
   -                               2  8.8312E-011   1.1036E-010   124.97  9.6088E-010  1088.05      0.00     0.00
"LINE.12460997_ID6218" .........   1      37.453      0.77033     2.06     0.77814     2.08      7.79     6.49
   -                               2      37.453      0.77033     2.06     0.77814     2.08      0.00     0.00
"LINE.357366308_ID5065" ........   1      81.131       2.4228     2.99      2.4323     3.00     17.00    14.17
   -                               2      81.131       2.4228     2.99      2.4323     3.00      0.00     0.00
"LINE.363439174_ID4193" ........   1      113.24        2.571     2.27      2.5783     2.28     23.35    19.46
   -                               2      113.24        2.571     2.27      2.5783     2.28      0.00     0.00
"LINE.5675026_ID6379" ..........   1  6.5507E-009   5.2373E-009    79.95  7.761E-010    11.85      0.00     0.00
   -                               2  5.4199E-009   7.3681E-009   135.94  1.4726E-009    27.17      0.00     0.00
"LINE.363825500_ID6380" ........   1  1.418E-009   8.0615E-009   568.50  4.3647E-008  3077.96      0.00     0.00
   -                               2  1.3152E-009   7.9173E-009   601.97  4.517E-008  3434.32      0.00     0.00
"LINE.5676155_ID5424" ..........   1      72.396      0.64594     0.89     0.63269     0.87     17.15    12.23
   -                               2      72.396      0.64594     0.89     0.63269     0.87      0.00     0.00
"LINE.5676156_ID5425" ..........   1      4.0473   0.00066564     0.02  1.9319E-009     0.00      1.91     0.67
   -                               2      4.0473   0.00066564     0.02  6.5512E-010     0.00      0.00     0.00
"LINE.5675005_ID5731" ..........   1      19.538      0.34239     1.75     0.37374     1.91      4.73     3.37
   -                               2      19.538      0.34239     1.75     0.37374     1.91      0.00     0.00
"LINE.5667225_ID4674" ..........   1      73.224       1.0768     1.47      1.1062     1.51     23.11    12.44
   -                               2      73.224       1.0768     1.47      1.1062     1.51      0.00     0.00
"LINE.5667354_ID4675" ..........   1  1.4012E-010   4.1967E-010   299.51  3.0324E-010   216.42      0.00     0.00
   -                               2  3.6225E-010   4.1588E-010   114.80  4.4289E-010   122.26      0.00     0.00
"LINE.5667355_ID4676" ..........   1  2.303E-010   1.5307E-010    66.47  3.3019E-011    14.34      0.00     0.00
   -                               2  1.5506E-010   1.4786E-010    95.36  2.0063E-010   129.39      0.00     0.00
"LINE.5667268_ID5994" ..........   1      30.931       0.7912     2.56     0.78943     2.55     10.06     5.42
   -                               2      30.931       0.7912     2.56     0.78943     2.55      0.00     0.00
"LINE.5667300_ID3376" ..........   1      135.56      0.59435     0.44     0.55939     0.41     37.50    22.75
   -                               2      135.56      0.59435     0.44     0.55939     0.41      0.00     0.00
"LINE.5675012_ID6381" ..........   1  8.6062E-011   1.2473E-010   144.93  1.3627E-009  1583.36      0.00     0.00
   -                               2  9.5398E-011   1.3134E-010   137.68  5.2243E-011    54.76      0.00     0.00
"LINE.5675013_ID6382" ..........   1  9.8839E-011   2.4623E-010   249.12  2.5919E-009  2622.31      0.00     0.00
   -                               2  7.5284E-011   1.6684E-010   221.62  1.4896E-009  1978.71      0.00     0.00
"LINE.363313797_ID6383" ........   1  3.596E-009   1.0389E-009    28.89  1.3285E-009    36.94      0.00     0.00
   -                               2  1.188E-009   2.9591E-009   249.08  3.4042E-009   286.55      0.00     0.00
"LINE.363825500_ID6384" ........   1  1.0011E-009   9.0122E-009   900.24  4.3486E-008  4343.92      0.00     0.00
   -                               2  1.0832E-009   8.4323E-009   778.49  4.2598E-008  3932.79      0.00     0.00
"LINE.5676509_ID5426" ..........   1  2.0199E-009   1.1133E-009    55.12  2.5501E-008  1262.49      0.00     0.00
   -                               2   2.67E-009   1.1816E-009    44.26  2.6622E-008   997.06      0.00     0.00
"LINE.5676510_ID5427" ..........   1      72.396      0.64594     0.89     0.63269     0.87     17.15    12.23
   -                               2      72.396      0.64594     0.89     0.63269     0.87      0.00     0.00
"LINE.5676212_ID5428" ..........   1      4.0473   0.00066564     0.02  1.6777E-009     0.00      5.70     0.67
   -                               2      4.0473   0.00066564     0.02  2.002E-009     0.00      0.00     0.00
"LINE.5675005_ID5732" ..........   1      19.538      0.34239     1.75     0.37374     1.91      4.73     3.37
   -                               2      19.538      0.34239     1.75     0.37374     1.91      0.00     0.00
"LINE.5667225_ID4677" ..........   1      73.224       1.0768     1.47      1.1062     1.51     23.11    12.44
   -                               2      73.224       1.0768     1.47      1.1062     1.51      0.00     0.00
"LINE.5667664_ID6219" ..........   1      37.453      0.77033     2.06     0.77814     2.08     10.70     6.49
   -                               2      37.453      0.77033     2.06     0.77814     2.08      0.00     0.00
"LINE.5667260_ID5995" ..........   1  2.4496E-010   3.8156E-010   155.76   1.32E-008  5388.40      0.00     0.00
   -                               2  6.9909E-011   5.0782E-010   726.40  1.9109E-010   273.35      0.00     0.00
"LINE.5667261_ID5996" ..........   1      30.931       0.7912     2.56     0.78943     2.55      7.59     5.42
   -                               2      30.931       0.7912     2.56     0.78943     2.55      0.00     0.00
"LINE.363039876_ID5066" ........   1      81.131       2.4228     2.99      2.4323     3.00     19.87    14.17
   -                               2      81.131       2.4228     2.99      2.4323     3.00      0.00     0.00
"LINE.363663319_ID5067" ........   1  9.8477E-009   1.5938E-009    16.18  1.0504E-008   106.66      0.00     0.00
   -                               2  8.269E-009   3.2909E-009    39.80  8.495E-009   102.73      0.00     0.00
"LINE.359531326_ID4194" ........   1      113.24        2.571     2.27      2.5783     2.28     27.28    19.46
   -                               2      113.24        2.571     2.27      2.5783     2.28      0.00     0.00
"LINE.363663835_ID4195" ........   1  4.4736E-009   1.4145E-009    31.62  1.0345E-008   231.26      0.00     0.00
   -                               2  4.1575E-009   1.5328E-009    36.87  2.3057E-008   554.57      0.00     0.00
"LINE.5667301_ID3377" ..........   1  3.1048E-009   1.0417E-009    33.55  8.0607E-010    25.96      0.00     0.00
   -                               2  3.0397E-009   1.0766E-009    35.42  8.3311E-010    27.41      0.00     0.00
"LINE.5667302_ID3378" ..........   1      135.56      0.59435     0.44     0.55939     0.41     31.90    22.75
   -                               2      135.56      0.59435     0.44     0.55939     0.41      0.00     0.00
"LINE.5675013_ID6385" ..........   1  2.2861E-010   3.2766E-010   143.33  7.8214E-011    34.21      0.00     0.00
   -                               2  1.3946E-010   2.6019E-010   186.57  1.227E-009   879.82      0.00     0.00
"LINE.363313797_ID6386" ........   1  5.9607E-010   1.0153E-009   170.33  4.5792E-010    76.82      0.00     0.00
   -                               2  2.1735E-010   1.1636E-009   535.36  5.6267E-010   258.88      0.00     0.00
"LINE.5676509_ID5429" ..........   1  1.4017E-009   1.5184E-009   108.32  2.1643E-008  1544.01      0.00     0.00
   -                               2  1.3429E-009   1.6531E-009   123.09  2.4958E-008  1858.51      0.00     0.00
"LINE.5676510_ID5430" ..........   1      72.396      0.64594     0.89     0.63269     0.87     17.15    12.23
   -                               2      72.396      0.64594     0.89     0.63269     0.87      0.00     0.00
"LINE.5675005_ID5733" ..........   1      19.538      0.34239     1.75     0.37374     1.91      4.73     3.37
   -                               2      19.538      0.34239     1.75     0.37374     1.91      0.00     0.00
"LINE.5666143_ID4678" ..........   1     0.50775   0.00010445     0.02  0.00010493     0.02      0.72     0.08
   -                               2     0.50775   0.00010445     0.02  0.00010493     0.02      0.00     0.00
"LINE.5667225_ID4679" ..........   1      72.716       1.0769     1.48      1.1061     1.52     22.95    12.36
   -                               2      72.716       1.0769     1.48      1.1061     1.52      0.00     0.00
"LINE.5667680_ID6220" ..........   1      37.453      0.77033     2.06     0.77814     2.08     10.70     6.49
   -                               2      37.453      0.77033     2.06     0.77814     2.08      0.00     0.00
"LINE.5667681_ID6221" ..........   1  4.4241E-010   5.9211E-011    13.38  2.7183E-010    61.44      0.00     0.00
   -                               2  2.4816E-010    2.95E-010   118.87  5.4117E-010   218.07      0.00     0.00
"LINE.5667051_ID5997" ..........   1      30.931       0.7912     2.56     0.78943     2.55      7.59     5.42
   -                               2      30.931       0.7912     2.56     0.78943     2.55      0.00     0.00
"LINE.363039876_ID5068" ........   1      81.131       2.4228     2.99      2.4323     3.00     19.87    14.17
   -                               2      81.131       2.4228     2.99      2.4323     3.00      0.00     0.00
"LINE.363663319_ID5069" ........   1  2.0682E-009   2.3691E-009   114.55  4.5121E-009   218.16      0.00     0.00
   -                               2  1.4437E-009   3.0158E-009   208.89  5.7745E-009   399.98      0.00     0.00
"LINE.359530394_ID4196" ........   1      113.24        2.571     2.27      2.5783     2.28     27.28    19.46
   -                               2      113.24        2.571     2.27      2.5783     2.28      0.00     0.00
"LINE.363663835_ID4197" ........   1  3.9811E-009   1.4821E-009    37.23   1.07E-008   268.78      0.00     0.00
   -                               2  3.7066E-009   1.3624E-009    36.76  1.7733E-009    47.84      0.00     0.00
"LINE.5667301_ID3379" ..........   1  1.0595E-009   3.4092E-009   321.78  1.9819E-009   187.07      0.00     0.00
   -                               2  3.0019E-009   3.1363E-009   104.48  1.1368E-009    37.87      0.00     0.00
"LINE.5667203_ID3380" ..........   1  1.2638E-009   2.3058E-010    18.24  1.1982E-009    94.81      0.00     0.00
   -                               2  7.344E-010   1.9677E-010    26.79  1.2389E-009   168.69      0.00     0.00
"LINE.5667302_ID3381" ..........   1      135.56      0.59435     0.44     0.55939     0.41     31.90    22.75
   -                               2      135.56      0.59435     0.44     0.55939     0.41      0.00     0.00
"LINE.363826075_ID6387" ........   1  1.5522E-009   7.8279E-009   504.31  4.1926E-008  2701.07      0.00     0.00
   -                               2  1.3914E-009   7.9389E-009   570.56  4.2917E-008  3084.38      0.00     0.00
"LINE.5681229_ID5431" ..........   1  1.5634E-009   1.6758E-009   107.19  1.7795E-008  1138.21      0.00     0.00
   -                               2  1.5532E-009   1.7155E-009   110.45  2.1581E-008  1389.40      0.00     0.00
"LINE.5675005_ID5734" ..........   1      19.538      0.34239     1.75     0.37374     1.91      4.73     3.37
   -                               2      19.538      0.34239     1.75     0.37374     1.91      0.00     0.00
"LINE.5667225_ID4680" ..........   1      72.716       1.0769     1.48      1.1061     1.52     22.95    12.36
   -                               2      72.716       1.0769     1.48      1.1061     1.52      0.00     0.00
"LINE.5667680_ID6222" ..........   1        37.1      0.77042     2.08     0.77814     2.10     10.60     6.43
   -                               2        37.1      0.77042     2.08     0.77814     2.10      0.00     0.00
"LINE.5667698_ID6223" ..........   1     0.35761   8.8788E-005     0.02  4.5296E-010     0.00      0.50     0.06
   -                               2     0.35761   8.8788E-005     0.02  1.6365E-010     0.00      0.00     0.00
"LINE.5666936_ID5998" ..........   1      1.0261   0.00031714     0.03  0.00031826     0.03      1.45     0.17
   -                               2      1.0261   0.00031714     0.03  0.00031826     0.03      0.00     0.00
"LINE.5667051_ID5999" ..........   1      29.914      0.79105     2.64     0.78955     2.64      7.36     5.25
   -                               2      29.914      0.79105     2.64     0.78955     2.64      0.00     0.00
"LINE.363039876_ID5070" ........   1      81.131       2.4228     2.99      2.4323     3.00     19.87    14.17
   -                               2      81.131       2.4228     2.99      2.4323     3.00      0.00     0.00
"LINE.363663319_ID5071" ........   1  4.2136E-009   2.2419E-009    53.21  9.1105E-009   216.22      0.00     0.00
   -                               2  3.961E-009   2.468E-009    62.31  6.8315E-009   172.47      0.00     0.00
"LINE.102369750_ID4198" ........   1      111.71       2.5712     2.30      2.5782     2.31     26.92    19.20
   -                               2      111.71       2.5712     2.30      2.5782     2.31      0.00     0.00
"LINE.363663835_ID4199" ........   1  2.3168E-009   1.2193E-009    52.63  1.0556E-009    45.56      0.00     0.00
   -                               2  6.4674E-010   1.8044E-009   279.01  3.8556E-009   596.16      0.00     0.00
"LINE.5667302_ID3382" ..........   1      135.56      0.59435     0.44     0.55939     0.41     31.90    22.75
   -                               2      135.56      0.59435     0.44     0.55939     0.41      0.00     0.00
"LINE.363826075_ID6388" ........   1  1.4045E-009   7.6505E-009   544.73  3.9379E-008  2803.85      0.00     0.00
   -                               2  1.5692E-009   7.7595E-009   494.50  4.1875E-008  2668.65      0.00     0.00
"LINE.5681229_ID5432" ..........   1  1.4867E-009   1.7067E-009   114.80  1.7858E-008  1201.20      0.00     0.00
   -                               2  1.5083E-009   1.6564E-009   109.82  1.4671E-008   972.69      0.00     0.00
"LINE.5680987_ID5433" ..........   1      72.396      0.64594     0.89     0.63269     0.87     17.15    12.23
   -                               2      72.396      0.64594     0.89     0.63269     0.87      0.00     0.00
"LINE.5675005_ID5735" ..........   1      19.538      0.34239     1.75     0.37374     1.91      4.73     3.37
   -                               2      19.538      0.34239     1.75     0.37374     1.91      0.00     0.00
"LINE.5667225_ID4681" ..........   1      72.716       1.0769     1.48      1.1061     1.52     22.95    12.36
   -                               2      72.716       1.0769     1.48      1.1061     1.52      0.00     0.00
"LINE.5667680_ID6224" ..........   1        37.1      0.77042     2.08     0.77814     2.10     10.60     6.43
   -                               2        37.1      0.77042     2.08     0.77814     2.10      0.00     0.00
"LINE.5667051_ID6000" ..........   1      29.914      0.79105     2.64     0.78955     2.64      7.36     5.25
   -                               2      29.914      0.79105     2.64     0.78955     2.64      0.00     0.00
"LINE.363039876_ID5072" ........   1      81.131       2.4228     2.99      2.4323     3.00     19.87    14.17
   -                               2      81.131       2.4228     2.99      2.4323     3.00      0.00     0.00
"LINE.363663319_ID5073" ........   1  1.5141E-009   1.1857E-009    78.31  5.006E-009   330.62      0.00     0.00
   -                               2  1.3447E-009   6.684E-010    49.71  8.8489E-010    65.81      0.00     0.00
"LINE.102369750_ID4200" ........   1      111.71       2.5712     2.30      2.5782     2.31     26.92    19.20
   -                               2      111.71       2.5712     2.30      2.5782     2.31      0.00     0.00
"LINE.5665972_ID3383" ..........   1  2.5433E-009   3.3085E-009   130.08  2.9523E-008  1160.78      0.00     0.00
   -                               2  1.8348E-009   3.3271E-009   181.33  2.9446E-008  1604.85      0.00     0.00
"LINE.5665973_ID3384" ..........   1      135.56      0.59435     0.44     0.55939     0.41     37.50    22.75
   -                               2      135.56      0.59435     0.44     0.55939     0.41      0.00     0.00
"LINE.363826075_ID6389" ........   1  1.7653E-009   7.5299E-009   426.56  3.9426E-008  2233.44      0.00     0.00
   -                               2  3.3861E-009   8.3287E-009   245.97  4.0994E-008  1210.66      0.00     0.00
"LINE.5681229_ID5434" ..........   1  9.9199E-010   1.7979E-009   181.24  1.4784E-008  1490.38      0.00     0.00
   -                               2  9.4658E-010   1.8566E-009   196.13  1.4886E-008  1572.57      0.00     0.00
"LINE.5681173_ID5435" ..........   1      72.396      0.64594     0.89     0.63269     0.87     17.15    12.23
   -                               2      72.396      0.64594     0.89     0.63269     0.87      0.00     0.00
"LINE.5676355_ID5736" ..........   1      19.538      0.34239     1.75     0.37374     1.91      4.73     3.37
   -                               2      19.538      0.34239     1.75     0.37374     1.91      0.00     0.00
"LINE.5665137_ID4682" ..........   1      1.0116   0.00021137     0.02  0.00021234     0.02      1.42     0.17
   -                               2      1.0116   0.00021137     0.02  0.00021234     0.02      0.00     0.00
"LINE.5667225_ID4683" ..........   1      71.705        1.077     1.50       1.106     1.54     22.64    12.19
   -                               2      71.705        1.077     1.50       1.106     1.54      0.00     0.00
"LINE.5667720_ID6225" ..........   1        37.1      0.77042     2.08     0.77814     2.10     10.60     6.43
   -                               2        37.1      0.77042     2.08     0.77814     2.10      0.00     0.00
"LINE.5666170_ID6001" ..........   1  5.3304E-010   4.479E-010    84.03  7.4164E-010   139.13      0.00     0.00
   -                               2  9.413E-010   7.4995E-010    79.67  2.1329E-010    22.66      0.00     0.00
"LINE.5667051_ID6002" ..........   1      29.914      0.79105     2.64     0.78955     2.64      7.36     5.25
   -                               2      29.914      0.79105     2.64     0.78955     2.64      0.00     0.00
"LINE.363039876_ID5074" ........   1      81.131       2.4228     2.99      2.4323     3.00     19.87    14.17
   -                               2      81.131       2.4228     2.99      2.4323     3.00      0.00     0.00
"LINE.5666055_ID4201" ..........   1    0.081236   2.2145E-005     0.03  4.3394E-010     0.00      0.11     0.01
   -                               2    0.081236   2.2145E-005     0.03  6.4541E-010     0.00      0.00     0.00
"LINE.359531448_ID4202" ........   1      111.67       2.5711     2.30      2.5782     2.31     26.91    19.20
   -                               2      111.67       2.5711     2.30      2.5782     2.31      0.00     0.00
"LINE.363826075_ID6390" ........   1  2.0286E-009   7.9805E-009   393.41  3.9511E-008  1947.74      0.00     0.00
   -                               2  1.8951E-009     8.1E-009   427.41  3.7999E-008  2005.08      0.00     0.00
"LINE.5681229_ID5436" ..........   1  1.5226E-009   1.2329E-009    80.98  1.3552E-008   890.05      0.00     0.00
   -                               2  1.2024E-009   1.576E-009   131.07  1.4487E-008  1204.90      0.00     0.00
"LINE.5681173_ID5437" ..........   1      56.861      0.64808     1.14     0.63269     1.11     13.52     9.64
   -                               2      56.861      0.64808     1.14     0.63269     1.11      0.00     0.00
"LINE.5681377_ID5438" ..........   1      15.898    0.0026329     0.02  1.4508E-009     0.00     22.39     2.65
   -                               2      15.898    0.0026329     0.02  1.3276E-009     0.00      0.00     0.00
"LINE.5676355_ID5737" ..........   1      19.538      0.34239     1.75     0.37374     1.91      4.73     3.37
   -                               2      19.538      0.34239     1.75     0.37374     1.91      0.00     0.00
"LINE.5667225_ID4684" ..........   1      71.705        1.077     1.50       1.106     1.54     22.64    12.19
   -                               2      71.705        1.077     1.50       1.106     1.54      0.00     0.00
"LINE.5667707_ID6226" ..........   1      30.039      0.57369     1.91     0.57916     1.93      8.55     5.19
   -                               2      30.039      0.57369     1.91     0.57916     1.93      0.00     0.00
"LINE.5667708_ID6227" ..........   1      7.2574      0.20042     2.76     0.20262     2.79      2.10     1.28
   -                               2      7.2574      0.20042     2.76     0.20262     2.79      0.00     0.00
"LINE.5665967_ID6003" ..........   1      1.8792   0.00046134     0.02  2.267E-010     0.00      2.65     0.31
   -                               2      1.8792   0.00046134     0.02  5.6535E-010     0.00      0.00     0.00
"LINE.5667051_ID6004" ..........   1      28.035      0.79102     2.82     0.78955     2.82      6.92     4.93
   -                               2      28.035      0.79102     2.82     0.78955     2.82      0.00     0.00
"LINE.363039876_ID5075" ........   1      81.131       2.4228     2.99      2.4323     3.00     19.87    14.17
   -                               2      81.131       2.4228     2.99      2.4323     3.00      0.00     0.00
"LINE.5666055_ID4203" ..........   1    0.081236   2.2145E-005     0.03  6.2615E-010     0.00      0.11     0.01
   -                               2    0.081236   2.2145E-005     0.03  7.7371E-010     0.00      0.00     0.00
"LINE.359530425_ID4204" ........   1      111.67       2.5711     2.30      2.5782     2.31     26.91    19.20
   -                               2      111.67       2.5711     2.30      2.5782     2.31      0.00     0.00
"LINE.12460838_ID3385" .........   1  3.7409E-009   1.2016E-009    32.12  3.3001E-008   882.15      0.00     0.00
   -                               2  2.0633E-009   7.4842E-010    36.27  3.2909E-008  1594.96      0.00     0.00
"LINE.12460841_ID3386" .........   1      135.56      0.59435     0.44     0.55939     0.41     27.30    22.75
   -                               2      135.56      0.59435     0.44     0.55939     0.41      0.00     0.00
"LINE.5675028_ID6391" ..........   1  3.5531E-009   9.1915E-009   258.69  3.7673E-008  1060.29      0.00     0.00
   -                               2  3.2092E-009   7.8352E-009   244.15  3.8247E-008  1191.80      0.00     0.00
"LINE.5682106_ID5439" ..........   1  8.7831E-010   6.9303E-010    78.91  1.1029E-008  1255.70      0.00     0.00
   -                               2  9.4701E-010   5.4027E-010    57.05  1.3842E-008  1461.70      0.00     0.00
"LINE.5681632_ID5440" ..........   1      56.861      0.64808     1.14     0.63269     1.11     13.52     9.64
   -                               2      56.861      0.64808     1.14     0.63269     1.11      0.00     0.00
"LINE.5676366_ID5738" ..........   1      19.538      0.34239     1.75     0.37374     1.91      4.73     3.37
   -                               2      19.538      0.34239     1.75     0.37374     1.91      0.00     0.00
"LINE.5664516_ID4685" ..........   1      71.705        1.077     1.50       1.106     1.54     22.64    12.19
   -                               2      71.705        1.077     1.50       1.106     1.54      0.00     0.00
"LINE.5664517_ID4686" ..........   1  9.5043E-010   2.8515E-009   300.02  5.4061E-008  5688.07      0.00     0.00
   -                               2  1.0505E-009   2.9044E-009   276.49  5.4483E-008  5186.57      0.00     0.00
"LINE.5672541_ID6228" ..........   1      29.876      0.60861     2.04     0.61596     2.06      8.53     5.18
   -                               2      29.876      0.60861     2.04     0.61596     2.06      0.00     0.00
"LINE.364308270_ID6229" ........   1     0.16861      0.13478    79.93     0.13655    80.98      0.12     0.07
   -                               2     0.16861      0.13478    79.93     0.13655    80.98      0.00     0.00
"LINE.352220248_ID6230" ........   1  3.2772E-009   1.8942E-009    57.80  4.126E-008  1259.02      0.00     0.00
   -                               2  3.8276E-009   1.8785E-009    49.08  4.1422E-008  1082.20      0.00     0.00
"LINE.5665921_ID6005" ..........   1     0.37655      0.37655   100.00     0.37655   100.00      1.59     0.19
   -                               2     0.37655      0.37655   100.00     0.37655   100.00      0.00     0.00
"LINE.5667051_ID6006" ..........   1       27.66      0.41756     1.51     0.41692     1.51      6.65     4.75
   -                               2       27.66      0.41756     1.51     0.41692     1.51      0.00     0.00
"LINE.363039876_ID5076" ........   1      81.131       2.4228     2.99      2.4323     3.00     19.87    14.17
   -                               2      81.131       2.4228     2.99      2.4323     3.00      0.00     0.00
"LINE.359530607_ID4205" ........   1      111.67       2.5711     2.30      2.5782     2.31     26.91    19.20
   -                               2      111.67       2.5711     2.30      2.5782     2.31      0.00     0.00
"LINE.12460835_ID3387" .........   1  2.459E-009   7.1097E-010    28.91  3.1285E-008  1272.27      0.00     0.00
   -                               2  2.3855E-009   7.1822E-010    30.11  1.8167E-008   761.57      0.00     0.00
"LINE.12460834_ID3388" .........   1      135.56      0.59435     0.44     0.55939     0.41     27.30    22.75
   -                               2      135.56      0.59435     0.44     0.55939     0.41      0.00     0.00
"LINE.5675028_ID6392" ..........   1  2.5968E-009   8.1354E-009   313.29  3.791E-008  1459.91      0.00     0.00
   -                               2  2.4593E-009   8.303E-009   337.61  3.6128E-008  1469.04      0.00     0.00
"LINE.5682257_ID5441" ..........   1  8.3067E-010   5.6389E-010    67.88  5.2672E-009   634.09      0.00     0.00
   -                               2  7.421E-010   5.8426E-010    78.73  1.1158E-008  1503.60      0.00     0.00
"LINE.5676365_ID5739" ..........   1      19.538      0.34239     1.75     0.37374     1.91      5.56     3.37
   -                               2      19.538      0.34239     1.75     0.37374     1.91      0.00     0.00
"LINE.5664517_ID4687" ..........   1  8.3776E-010   2.7315E-009   326.05  5.4193E-008  6468.78      0.00     0.00
   -                               2  7.2528E-010   2.7597E-009   380.50  5.3294E-008  7348.14      0.00     0.00
"LINE.364308270_ID6231" ........   1     0.16861      0.13478    79.93     0.13655    80.98      0.12     0.07
   -                               2     0.16861      0.13478    79.93     0.13655    80.98      0.00     0.00
"LINE.5667732_ID6232" ..........   1  3.4572E-009   2.3404E-009    67.70  9.8418E-010    28.47      0.00     0.00
   -                               2  3.4046E-009   2.0215E-009    59.38  1.325E-009    38.92      0.00     0.00
"LINE.5667730_ID6288" ..........   1      7.2574      0.20042     2.76     0.20262     2.79      2.10     1.28
   -                               2      7.2574      0.20042     2.76     0.20262     2.79      0.00     0.00
"LINE.5667051_ID6007" ..........   1       27.66      0.41756     1.51     0.41692     1.51      6.65     4.75
   -                               2       27.66      0.41756     1.51     0.41692     1.51      0.00     0.00
"LINE.363039876_ID5077" ........   1      81.131       2.4228     2.99      2.4323     3.00     19.87    14.17
   -                               2      81.131       2.4228     2.99      2.4323     3.00      0.00     0.00
"LINE.359530607_ID4206" ........   1      111.67       2.5711     2.30      2.5782     2.31     26.91    19.20
   -                               2      111.67       2.5711     2.30      2.5782     2.31      0.00     0.00
"LINE.12460830_ID3389" .........   1  2.2863E-009   5.4634E-010    23.90  1.823E-008   797.34      0.00     0.00
   -                               2  2.2327E-009   4.9558E-010    22.20  1.7641E-009    79.01      0.00     0.00
"LINE.12460834_ID3390" .........   1      135.56      0.59435     0.44     0.55939     0.41     27.30    22.75
   -                               2      135.56      0.59435     0.44     0.55939     0.41      0.00     0.00
"LINE.5675028_ID6393" ..........   1  2.634E-009   8.0046E-009   303.89  3.4363E-008  1304.60      0.00     0.00
   -                               2  2.5972E-009   7.9782E-009   307.19  3.575E-008  1376.49      0.00     0.00
"LINE.5682638_ID5442" ..........   1  5.2661E-010   1.2326E-010    23.41  5.2717E-009  1001.07      0.00     0.00
   -                               2  4.0278E-010   1.6312E-010    40.50  2.4944E-009   619.30      0.00     0.00
"LINE.5682639_ID5443" ..........   1  3.5167E-010   2.9521E-010    83.95  5.9434E-011    16.90      0.00     0.00
   -                               2  3.5424E-010   4.3066E-010   121.57  1.6276E-010    45.95      0.00     0.00
"LINE.5682005_ID5444" ..........   1      56.861      0.64808     1.14     0.63269     1.11     13.52     9.64
   -                               2      56.861      0.64808     1.14     0.63269     1.11      0.00     0.00
"LINE.5676344_ID5740" ..........   1     0.41247   7.271E-005     0.02  8.5707E-010     0.00      0.21     0.07
   -                               2     0.41247   7.271E-005     0.02  8.0944E-010     0.00      0.00     0.00
"LINE.5676345_ID5741" ..........   1      19.126      0.34239     1.79     0.37374     1.95      4.63     3.30
   -                               2      19.126      0.34239     1.79     0.37374     1.95      0.00     0.00
"LINE.12460696_ID4688" .........   1      71.705        1.077     1.50       1.106     1.54     14.63    12.19
   -                               2      71.705        1.077     1.50       1.106     1.54      0.00     0.00
"LINE.362641944_ID6233" ........   1      29.876      0.60861     2.04     0.61596     2.06      8.53     5.18
   -                               2      29.876      0.60861     2.04     0.61596     2.06      0.00     0.00
"LINE.5672520_ID6234" ..........   1     0.18409            0     0.00           0     0.00      0.26     0.03
   -                               2     0.18409            0     0.00           0     0.00      0.00     0.00
"LINE.364308270_ID6235" ........   1    0.045926     0.022953    49.98    0.022974    50.02      0.02     0.01
   -                               2    0.045926     0.022953    49.98    0.022974    50.02      0.00     0.00
"LINE.5667732_ID6237" ..........   1  8.8739E-011   7.1045E-011    80.06  1.5631E-010   176.14      0.00     0.00
   -                               2  5.5784E-011   3.0071E-010   539.07  1.1229E-010   201.29      0.00     0.00
"LINE.5667731_ID6236" ..........   1  1.6039E-009   2.3313E-009   145.35  4.7609E-008  2968.28      0.00     0.00
   -                               2  1.5094E-009   2.1426E-009   141.94  4.6122E-008  3055.55      0.00     0.00
"LINE.5667730_ID6289" ..........   1      7.2574      0.20042     2.76     0.20262     2.79      2.10     1.28
   -                               2      7.2574      0.20042     2.76     0.20262     2.79      0.00     0.00
"LINE.5665757_ID6008" ..........   1  4.0659E-009   2.4302E-009    59.77    4.4E-008  1082.18      0.00     0.00
   -                               2  6.8844E-009   1.5642E-009    22.72  4.4116E-008   640.81      0.00     0.00
"LINE.5665758_ID6009" ..........   1       27.66      0.41756     1.51     0.41692     1.51      8.82     4.75
   -                               2       27.66      0.41756     1.51     0.41692     1.51      0.00     0.00
"LINE.360934673_ID5078" ........   1      80.152       2.4229     3.02      2.4323     3.03     19.64    14.01
   -                               2      80.152       2.4229     3.02      2.4323     3.03      0.00     0.00
"LINE.359530435_ID4207" ........   1      110.89       2.5712     2.32      2.5781     2.32     26.73    19.07
   -                               2      110.89       2.5712     2.32      2.5781     2.32      0.00     0.00
"LINE.12460811_ID3391" .........   1  1.0024E-009   6.9415E-010    69.25  3.5398E-009   353.13      0.00     0.00
   -                               2  3.8429E-010   1.2895E-009   335.54  1.1947E-009   310.88      0.00     0.00
"LINE.12460804_ID3392" .........   1      135.56      0.59435     0.44     0.55939     0.41     27.30    22.75
   -                               2      135.56      0.59435     0.44     0.55939     0.41      0.00     0.00
"LINE.5675028_ID6394" ..........   1  2.6823E-009   7.898E-009   294.45  3.2482E-008  1210.98      0.00     0.00
   -                               2  2.6577E-009   7.7268E-009   290.73  3.4211E-008  1287.24      0.00     0.00
"LINE.5682798_ID5445" ..........   1  3.5569E-010   3.5568E-010   100.00  3.1144E-010    87.56      0.00     0.00
   -                               2  3.7541E-010   1.2529E-010    33.38  6.1898E-010   164.88      0.00     0.00
"LINE.5682799_ID5446" ..........   1  3.5464E-011   9.4872E-011   267.51  3.4299E-011    96.71      0.00     0.00
   -                               2  4.8337E-011   1.7285E-011    35.76  3.7117E-009  7678.89      0.00     0.00
"LINE.5682005_ID5447" ..........   1      56.861      0.64808     1.14     0.63269     1.11     13.52     9.64
   -                               2      56.861      0.64808     1.14     0.63269     1.11      0.00     0.00
"LINE.5676325_ID5742" ..........   1     0.33976   6.5634E-005     0.02  6.5933E-005     0.02      0.48     0.06
   -                               2     0.33976   6.5634E-005     0.02  6.5932E-005     0.02      0.00     0.00
"LINE.5676345_ID5743" ..........   1      18.786      0.34238     1.82     0.37374     1.99      4.55     3.25
   -                               2      18.786      0.34238     1.82     0.37374     1.99      0.00     0.00
"LINE.12460695_ID4689" .........   1      71.705        1.077     1.50       1.106     1.54     14.63    12.19
   -                               2      71.705        1.077     1.50       1.106     1.54      0.00     0.00
"LINE.12460682_ID4690" .........   1  3.6741E-010   1.1395E-009   310.16  5.5405E-008 15079.99      0.00     0.00
   -                               2  1.4241E-009   4.8465E-010    34.03  5.6347E-008  3956.70      0.00     0.00
"LINE.364308270_ID6238" ........   1    0.045926     0.022953    49.98    0.022974    50.02      0.02     0.01
   -                               2    0.045926     0.022953    49.98    0.022974    50.02      0.00     0.00
"LINE.5667731_ID6239" ..........   1  3.3871E-010   1.1837E-009   349.48  4.7305E-008 13966.34      0.00     0.00
   -                               2  7.7392E-010   1.0273E-009   132.74  4.7255E-008  6105.90      0.00     0.00
"LINE.352993588_ID6290" ........   1      7.2574      0.20042     2.76     0.20262     2.79      1.53     1.28
   -                               2      7.2574      0.20042     2.76     0.20262     2.79      0.00     0.00
"LINE.360934673_ID5079" ........   1      80.152       2.4229     3.02      2.4323     3.03     19.64    14.01
   -                               2      80.152       2.4229     3.02      2.4323     3.03      0.00     0.00
"LINE.359530435_ID4208" ........   1      110.89       2.5712     2.32      2.5781     2.32     26.73    19.07
   -                               2      110.89       2.5712     2.32      2.5781     2.32      0.00     0.00
"LINE.5675028_ID6395" ..........   1  2.6398E-009   7.6518E-009   289.86  3.108E-008  1177.35      0.00     0.00
   -                               2  2.872E-009   7.6629E-009   266.81  3.2795E-008  1141.87      0.00     0.00
"LINE.5682006_ID5448" ..........   1  1.5076E-010   2.5913E-010   171.88  4.0648E-009  2696.18      0.00     0.00
   -                               2  1.0979E-010   9.3772E-011    85.41  9.2671E-011    84.41      0.00     0.00
"LINE.5682007_ID5449" ..........   1     0.59257      0.28352    47.85     0.28362    47.86      0.32     0.19
   -                               2     0.59257      0.28352    47.85     0.28362    47.86      0.00     0.00
"LINE.5682099_ID5450" ..........   1      56.269      0.46093     0.82     0.44743     0.80     13.26     9.46
   -                               2      56.269      0.46093     0.82     0.44743     0.80      0.00     0.00
"LINE.5676263_ID5744" ..........   1      1.7292   0.00030483     0.02  3.6062E-010     0.00      0.90     0.29
   -                               2      1.7292   0.00030483     0.02  1.8817E-010     0.00      0.00     0.00
"LINE.5676345_ID5745" ..........   1      17.747      0.34262     1.93     0.37374     2.11      4.31     3.07
   -                               2      17.747      0.34262     1.93     0.37374     2.11      0.00     0.00
"LINE.12460695_ID4691" .........   1      71.705        1.077     1.50       1.106     1.54     14.63    12.19
   -                               2      71.705        1.077     1.50       1.106     1.54      0.00     0.00
...